omf/scratch/OLD/OpenDssDemo/example/XFR_Loads_ckt5.dss
New Transformer.MDV201_1144260FUSE-1B  phases=1  wdg=1 bus=1144260.2  kv=7.19955785679463  kVA=25  wdg=2 bus=X_1144260.2  kv=0.24  kVA=25  %imag=0.5  %loadloss=1.5  %noloadloss=.25  XHL=2
New Transformer.MDV201_HN_2_461_C62251-1C  phases=1  wdg=1 bus=62251.3  kv=7.19955785679463  kVA=37.5   wdg=2 bus=X_62251.3  kv=0.24  kVA=37.5  %imag=0.5  %loadloss=1.4  %noloadloss=.25  XHL=2
New Transformer.MDV201_6569ELB-1B  phases=1  wdg=1 bus=6569.2  kv=7.19955785679463  kVA=37.5   wdg=2 bus=X_6569.2  kv=0.24  kVA=37.5  %imag=0.5  %loadloss=1.4  %noloadloss=.25  XHL=2
New Transformer.MDV201_HN_2_464_C62232-1C  phases=1  wdg=1 bus=62232.3  kv=7.19955785679463  kVA=25  wdg=2 bus=X_62232.3  kv=0.24  kVA=25  %imag=0.5  %loadloss=1.5  %noloadloss=.25  XHL=2
New Transformer.MDV201_HN_2_849_B94730-1B  phases=1  wdg=1 bus=94730.2  kv=7.19955785679463  kVA=25  wdg=2 bus=X_94730.2  kv=0.24  kVA=25  %imag=0.5  %loadloss=1.5  %noloadloss=.25  XHL=2
New Transformer.MDV201_HN_2_683_A39601-1A  phases=1  wdg=1 bus=39601.1  kv=7.19955785679463  kVA=25  wdg=2 bus=X_39601.1  kv=0.24  kVA=25  %imag=0.5  %loadloss=1.5  %noloadloss=.25  XHL=2
New Transformer.MDV201_HN_2_093_ABC63714-1B  phases=1  wdg=1 bus=63714.2  kv=7.19955785679463  kVA=15  wdg=2 bus=X_63714.2  kv=0.24  kVA=15  %imag=0.5  %loadloss=1.65  %noloadloss=.25  XHL=2
New Transformer.MDV201_HN_2_414_A843-1A  phases=1  wdg=1 bus=843.1  kv=7.19955785679463  kVA=25  wdg=2 bus=X_843.1  kv=0.24  kVA=25  %imag=0.5  %loadloss=1.5  %noloadloss=.25  XHL=2
New Transformer.MDV201_HN_2_523_C856-1C  phases=1  wdg=1 bus=856.3  kv=7.19955785679463  kVA=25  wdg=2 bus=X_856.3  kv=0.24  kVA=25  %imag=0.5  %loadloss=1.5  %noloadloss=.25  XHL=2
New Transformer.MDV201_DA_8_946_B56776-1B  phases=1  wdg=1 bus=56776.2  kv=7.19955785679463  kVA=25  wdg=2 bus=X_56776.2  kv=0.24  kVA=25  %imag=0.5  %loadloss=1.5  %noloadloss=.25  XHL=2
New Transformer.MDV201_HN_2_398_B63633-1B  phases=1  wdg=1 bus=63633.2  kv=7.19955785679463  kVA=25  wdg=2 bus=X_63633.2  kv=0.24  kVA=25  %imag=0.5  %loadloss=1.5  %noloadloss=.25  XHL=2
New Transformer.MDV201_DA_8_924_A56786-1A  phases=1  wdg=1 bus=56786.1  kv=7.19955785679463  kVA=25  wdg=2 bus=X_56786.1  kv=0.24  kVA=25  %imag=0.5  %loadloss=1.5  %noloadloss=.25  XHL=2
New Transformer.MDV201_HN_2_955_B39752-1B  phases=1  wdg=1 bus=39752.2  kv=7.19955785679463  kVA=25  wdg=2 bus=X_39752.2  kv=0.24  kVA=25  %imag=0.5  %loadloss=1.5  %noloadloss=.25  XHL=2
New Transformer.MDV201_HN_2_843_B69621-1B  phases=1  wdg=1 bus=69621.2  kv=7.19955785679463  kVA=25  wdg=2 bus=X_69621.2  kv=0.24  kVA=25  %imag=0.5  %loadloss=1.5  %noloadloss=.25  XHL=2
New Transformer.MDV201_HN_2_675_C89783-1C  phases=1  wdg=1 bus=89783.3  kv=7.19955785679463  kVA=25  wdg=2 bus=X_89783.3  kv=0.24  kVA=25  %imag=0.5  %loadloss=1.5  %noloadloss=.25  XHL=2
New Transformer.MDV201_HN_2_403_B792-1B  phases=1  wdg=1 bus=792.2  kv=7.19955785679463  kVA=25  wdg=2 bus=X_792.2  kv=0.24  kVA=25  %imag=0.5  %loadloss=1.5  %noloadloss=.25  XHL=2
New Transformer.MDV201_HN_2_528_C8154-1C  phases=1  wdg=1 bus=8154.3  kv=7.19955785679463  kVA=25  wdg=2 bus=X_8154.3  kv=0.24  kVA=25  %imag=0.5  %loadloss=1.5  %noloadloss=.25  XHL=2
New Transformer.MDV201_C_1_370_B69485-1B  phases=1  wdg=1 bus=69485.2  kv=7.19955785679463  kVA=15  wdg=2 bus=X_69485.2  kv=0.24  kVA=15  %imag=0.5  %loadloss=1.65  %noloadloss=.25  XHL=2
New Transformer.MDV201_HN_2_949_C8180-1C  phases=1  wdg=1 bus=8180.3  kv=7.19955785679463  kVA=25  wdg=2 bus=X_8180.3  kv=0.24  kVA=25  %imag=0.5  %loadloss=1.5  %noloadloss=.25  XHL=2
New Transformer.MDV201_HN_2_837_B39584-1B  phases=1  wdg=1 bus=39584.2  kv=7.19955785679463  kVA=25  wdg=2 bus=X_39584.2  kv=0.24  kVA=25  %imag=0.5  %loadloss=1.5  %noloadloss=.25  XHL=2
New Transformer.MDV201_HN_2_669_C89789-1C  phases=1  wdg=1 bus=89789.3  kv=7.19955785679463  kVA=25  wdg=2 bus=X_89789.3  kv=0.24  kVA=25  %imag=0.5  %loadloss=1.5  %noloadloss=.25  XHL=2
New Transformer.MDV201_HN_2_433_B787-1B  phases=1  wdg=1 bus=787.2  kv=7.19955785679463  kVA=50  wdg=2 bus=X_787.2  kv=0.24  kVA=50  %imag=0.5  %loadloss=1.3  %noloadloss=.25  XHL=2
New Transformer.MDV201_HN_2_459_C62259-1C  phases=1  wdg=1 bus=62259.3  kv=7.19955785679463  kVA=25  wdg=2 bus=X_62259.3  kv=0.24  kVA=25  %imag=0.5  %loadloss=1.5  %noloadloss=.25  XHL=2
New Transformer.MDV201_HN_2_942_C89791-1C  phases=1  wdg=1 bus=89791.3  kv=7.19955785679463  kVA=25  wdg=2 bus=X_89791.3  kv=0.24  kVA=25  %imag=0.5  %loadloss=1.5  %noloadloss=.25  XHL=2
New Transformer.MDV201_HN_2_663_C62247-1C  phases=1  wdg=1 bus=62247.3  kv=7.19955785679463  kVA=25  wdg=2 bus=X_62247.3  kv=0.24  kVA=25  %imag=0.5  %loadloss=1.5  %noloadloss=.25  XHL=2
New Transformer.MDV201_HN_2_159_B6572-1B  phases=1  wdg=1 bus=6572.2  kv=7.19955785679463  kVA=15  wdg=2 bus=X_6572.2  kv=0.24  kVA=15  %imag=0.5  %loadloss=1.65  %noloadloss=.25  XHL=2
New Transformer.MDV201_HN_2_070_A1144231-1A  phases=1  wdg=1 bus=1144231.1  kv=7.19955785679463  kVA=15  wdg=2 bus=X_1144231.1  kv=0.24  kVA=15  %imag=0.5  %loadloss=1.65  %noloadloss=.25  XHL=2
New Transformer.MDV201_HN_2_422_A790-1A  phases=1  wdg=1 bus=790.1  kv=7.19955785679463  kVA=25  wdg=2 bus=X_790.1  kv=0.24  kVA=25  %imag=0.5  %loadloss=1.5  %noloadloss=.25  XHL=2
New Transformer.MDV201_HN_2_389_B63636-1B  phases=1  wdg=1 bus=63636.2  kv=7.19955785679463  kVA=37.5   wdg=2 bus=X_63636.2  kv=0.24  kVA=37.5  %imag=0.5  %loadloss=1.4  %noloadloss=.25  XHL=2
New Transformer.MDV201_HN_2_936_B14995-1B  phases=1  wdg=1 bus=14995.2  kv=7.19955785679463  kVA=37.5   wdg=2 bus=X_14995.2  kv=0.24  kVA=37.5  %imag=0.5  %loadloss=1.4  %noloadloss=.25  XHL=2
New Transformer.MDV201_HN_2_821_B39618-1B  phases=1  wdg=1 bus=39618.2  kv=7.19955785679463  kVA=25  wdg=2 bus=X_39618.2  kv=0.24  kVA=25  %imag=0.5  %loadloss=1.5  %noloadloss=.25  XHL=2
New Transformer.MDV201_HN_2_656_A14864-1A  phases=1  wdg=1 bus=14864.1  kv=7.19955785679463  kVA=25  wdg=2 bus=X_14864.1  kv=0.24  kVA=25  %imag=0.5  %loadloss=1.5  %noloadloss=.25  XHL=2
New Transformer.MDV201_HN_2_304_A8174-1A  phases=1  wdg=1 bus=8174.1  kv=7.19955785679463  kVA=25  wdg=2 bus=X_8174.1  kv=0.24  kVA=25  %imag=0.5  %loadloss=1.5  %noloadloss=.25  XHL=2
New Transformer.MDV201_63677FUSE-1A  phases=1  wdg=1 bus=63677.1  kv=7.19955785679463  kVA=25  wdg=2 bus=X_63677.1  kv=0.24  kVA=25  %imag=0.5  %loadloss=1.5  %noloadloss=.25  XHL=2
New Transformer.MDV201_HN_2_357_C28293-1C  phases=1  wdg=1 bus=28293.3  kv=7.19955785679463  kVA=15  wdg=2 bus=X_28293.3  kv=0.24  kVA=15  %imag=0.5  %loadloss=1.65  %noloadloss=.25  XHL=2
New Transformer.MDV201_HN_2_489_C8104-1C  phases=1  wdg=1 bus=8104.3  kv=7.19955785679463  kVA=15  wdg=2 bus=X_8104.3  kv=0.24  kVA=15  %imag=0.5  %loadloss=1.65  %noloadloss=.25  XHL=2
New Transformer.MDV201_HN_2_650_A28242-1A  phases=1  wdg=1 bus=28242.1  kv=7.19955785679463  kVA=25  wdg=2 bus=X_28242.1  kv=0.24  kVA=25  %imag=0.5  %loadloss=1.5  %noloadloss=.25  XHL=2
New Transformer.MDV201_HN_2_537_C8094-1C  phases=1  wdg=1 bus=8094.3  kv=7.19955785679463  kVA=50  wdg=2 bus=X_8094.3  kv=0.24  kVA=50  %imag=0.5  %loadloss=1.3  %noloadloss=.25  XHL=2
New Transformer.MDV201_HN_21095_C1148537-1C  phases=1  wdg=1 bus=1148537.3  kv=7.19955785679463  kVA=25  wdg=2 bus=X_1148537.3  kv=0.24  kVA=25  %imag=0.5  %loadloss=1.5  %noloadloss=.25  XHL=2
New Transformer.MDV201_HN_2_283_ABC14857-1B  phases=1  wdg=1 bus=14857.2  kv=7.19955785679463  kVA=25  wdg=2 bus=X_14857.2  kv=0.24  kVA=25  %imag=0.5  %loadloss=1.5  %noloadloss=.25  XHL=2
New Transformer.MDV201_DA_8_155_ABC46395-1C  phases=1  wdg=1 bus=46395.3  kv=7.19955785679463  kVA=15  wdg=2 bus=X_46395.3  kv=0.24  kVA=15  %imag=0.5  %loadloss=1.65  %noloadloss=.25  XHL=2
New Transformer.MDV201_HN_1_380_C1012407-1C  phases=1  wdg=1 bus=1012407.3  kv=7.19955785679463  kVA=37.5   wdg=2 bus=X_1012407.3  kv=0.24  kVA=37.5  %imag=0.5  %loadloss=1.4  %noloadloss=.25  XHL=2
New Transformer.MDV201_C_1_124_ABC69481-1B  phases=1  wdg=1 bus=69481.2  kv=7.19955785679463  kVA=37.5   wdg=2 bus=X_69481.2  kv=0.24  kVA=37.5  %imag=0.5  %loadloss=1.4  %noloadloss=.25  XHL=2
New Transformer.MDV201_112113FUSE-1A  phases=1  wdg=1 bus=112113.1  kv=7.19955785679463  kVA=25  wdg=2 bus=X_112113.1  kv=0.24  kVA=25  %imag=0.5  %loadloss=1.5  %noloadloss=.25  XHL=2
New Transformer.MDV201_C_1_162_A69459-1A  phases=1  wdg=1 bus=69459.1  kv=7.19955785679463  kVA=25  wdg=2 bus=X_69459.1  kv=0.24  kVA=25  %imag=0.5  %loadloss=1.5  %noloadloss=.25  XHL=2
New Transformer.MDV201_HN_2_644_A28238-1A  phases=1  wdg=1 bus=28238.1  kv=7.19955785679463  kVA=25  wdg=2 bus=X_28238.1  kv=0.24  kVA=25  %imag=0.5  %loadloss=1.5  %noloadloss=.25  XHL=2
New Transformer.MDV201_HN_2_147_C14840-1C  phases=1  wdg=1 bus=14840.3  kv=7.19955785679463  kVA=37.5   wdg=2 bus=X_14840.3  kv=0.24  kVA=37.5  %imag=0.5  %loadloss=1.4  %noloadloss=.25  XHL=2
New Transformer.MDV201_HN_2_012_C28259-1C  phases=1  wdg=1 bus=28259.3  kv=7.19955785679463  kVA=50  wdg=2 bus=X_28259.3  kv=0.24  kVA=50  %imag=0.5  %loadloss=1.3  %noloadloss=.25  XHL=2
New Transformer.MDV201_HN_2_016_ABC63680-1C  phases=1  wdg=1 bus=63680.3  kv=7.19955785679463  kVA=15  wdg=2 bus=X_63680.3  kv=0.24  kVA=15  %imag=0.5  %loadloss=1.65  %noloadloss=.25  XHL=2
New Transformer.MDV201_HN_2_408_ABC63655-1B  phases=1  wdg=1 bus=63655.2  kv=7.19955785679463  kVA=25  wdg=2 bus=X_63655.2  kv=0.24  kVA=25  %imag=0.5  %loadloss=1.5  %noloadloss=.25  XHL=2
New Transformer.MDV201_1144240FUSE-1A  phases=1  wdg=1 bus=1144240.1  kv=7.19955785679463  kVA=25  wdg=2 bus=X_1144240.1  kv=0.24  kVA=25  %imag=0.5  %loadloss=1.5  %noloadloss=.25  XHL=2
New Transformer.MDV201_HN_2_907_A39581-1A  phases=1  wdg=1 bus=39581.1  kv=7.19955785679463  kVA=25  wdg=2 bus=X_39581.1  kv=0.24  kVA=25  %imag=0.5  %loadloss=1.5  %noloadloss=.25  XHL=2
New Transformer.MDV201_HN_2_803_B837-1B  phases=1  wdg=1 bus=837.2  kv=7.19955785679463  kVA=37.5   wdg=2 bus=X_837.2  kv=0.24  kVA=37.5  %imag=0.5  %loadloss=1.4  %noloadloss=.25  XHL=2
New Transformer.MDV201_HN_2_638_C28237-1C  phases=1  wdg=1 bus=28237.3  kv=7.19955785679463  kVA=25  wdg=2 bus=X_28237.3  kv=0.24  kVA=25  %imag=0.5  %loadloss=1.5  %noloadloss=.25  XHL=2
New Transformer.MDV201_HN_2_107_A39589-1A  phases=1  wdg=1 bus=39589.1  kv=7.19955785679463  kVA=25  wdg=2 bus=X_39589.1  kv=0.24  kVA=25  %imag=0.5  %loadloss=1.5  %noloadloss=.25  XHL=2
New Transformer.MDV201_DA_8_202_C74456-1C  phases=1  wdg=1 bus=74456.3  kv=7.19955785679463  kVA=25  wdg=2 bus=X_74456.3  kv=0.24  kVA=25  %imag=0.5  %loadloss=1.5  %noloadloss=.25  XHL=2
New Transformer.MDV201_HN_2_029_ABC62262-1B  phases=1  wdg=1 bus=62262.2  kv=7.19955785679463  kVA=15  wdg=2 bus=X_62262.2  kv=0.24  kVA=15  %imag=0.5  %loadloss=1.65  %noloadloss=.25  XHL=2
New Transformer.MDV201_HN_2_165_C39776-1C  phases=1  wdg=1 bus=39776.3  kv=7.19955785679463  kVA=37.5   wdg=2 bus=X_39776.3  kv=0.24  kVA=37.5  %imag=0.5  %loadloss=1.4  %noloadloss=.25  XHL=2
New Transformer.MDV201_DA_8_861_B1149720-1B  phases=1  wdg=1 bus=1149720.2  kv=7.19955785679463  kVA=25  wdg=2 bus=X_1149720.2  kv=0.24  kVA=25  %imag=0.5  %loadloss=1.5  %noloadloss=.25  XHL=2
New Transformer.MDV201_C_1_409_A8138-1A  phases=1  wdg=1 bus=8138.1  kv=7.19955785679463  kVA=37.5   wdg=2 bus=X_8138.1  kv=0.24  kVA=37.5  %imag=0.5  %loadloss=1.4  %noloadloss=.25  XHL=2
New Transformer.MDV201_C_1_399_A21654-1A  phases=1  wdg=1 bus=21654.1  kv=7.19955785679463  kVA=37.5   wdg=2 bus=X_21654.1  kv=0.24  kVA=37.5  %imag=0.5  %loadloss=1.4  %noloadloss=.25  XHL=2
New Transformer.MDV201_HN_2_632_C28235-1C  phases=1  wdg=1 bus=28235.3  kv=7.19955785679463  kVA=25  wdg=2 bus=X_28235.3  kv=0.24  kVA=25  %imag=0.5  %loadloss=1.5  %noloadloss=.25  XHL=2
New Transformer.MDV201_HN_2_320_C28302-1C  phases=1  wdg=1 bus=28302.3  kv=7.19955785679463  kVA=15  wdg=2 bus=X_28302.3  kv=0.24  kVA=15  %imag=0.5  %loadloss=1.65  %noloadloss=.25  XHL=2
New Transformer.MDV201_HN_2_386_B811-1B  phases=1  wdg=1 bus=811.2  kv=7.19955785679463  kVA=25  wdg=2 bus=X_811.2  kv=0.24  kVA=25  %imag=0.5  %loadloss=1.5  %noloadloss=.25  XHL=2
New Transformer.MDV201_107997ELB-1A  phases=1  wdg=1 bus=107997.1  kv=7.19955785679463  kVA=37.5   wdg=2 bus=X_107997.1  kv=0.24  kVA=37.5  %imag=0.5  %loadloss=1.4  %noloadloss=.25  XHL=2
New Transformer.MDV201_HN_2_491_C8114-1C  phases=1  wdg=1 bus=8114.3  kv=7.19955785679463  kVA=25  wdg=2 bus=X_8114.3  kv=0.24  kVA=25  %imag=0.5  %loadloss=1.5  %noloadloss=.25  XHL=2
New Transformer.MDV201_HN_2_118_ABC28287-1A  phases=1  wdg=1 bus=28287.1  kv=7.19955785679463  kVA=25  wdg=2 bus=X_28287.1  kv=0.24  kVA=25  %imag=0.5  %loadloss=1.5  %noloadloss=.25  XHL=2
New Transformer.MDV201_39756ELB-1B  phases=1  wdg=1 bus=39756.2  kv=7.19955785679463  kVA=25  wdg=2 bus=X_39756.2  kv=0.24  kVA=25  %imag=0.5  %loadloss=1.5  %noloadloss=.25  XHL=2
New Transformer.MDV201_DA_8_148_ABC56777-1B  phases=1  wdg=1 bus=56777.2  kv=7.19955785679463  kVA=25  wdg=2 bus=X_56777.2  kv=0.24  kVA=25  %imag=0.5  %loadloss=1.5  %noloadloss=.25  XHL=2
New Transformer.MDV201_DA_8_687_B74448-1B  phases=1  wdg=1 bus=74448.2  kv=7.19955785679463  kVA=50  wdg=2 bus=X_74448.2  kv=0.24  kVA=50  %imag=0.5  %loadloss=1.3  %noloadloss=.25  XHL=2
New Transformer.MDV201_HN_2_878_B1144266-1B  phases=1  wdg=1 bus=1144266.2  kv=7.19955785679463  kVA=25  wdg=2 bus=X_1144266.2  kv=0.24  kVA=25  %imag=0.5  %loadloss=1.5  %noloadloss=.25  XHL=2
New Transformer.MDV201_HN_2_760_ABC28208-1A  phases=1  wdg=1 bus=28208.1  kv=7.19955785679463  kVA=15  wdg=2 bus=X_28208.1  kv=0.24  kVA=15  %imag=0.5  %loadloss=1.65  %noloadloss=.25  XHL=2
New Transformer.MDV201_HN_2_760_ABC28208-1B  phases=1  wdg=1 bus=28208.2  kv=7.19955785679463  kVA=15  wdg=2 bus=X_28208.2  kv=0.24  kVA=15  %imag=0.5  %loadloss=1.65  %noloadloss=.25  XHL=2
New Transformer.MDV201_HN_2_760_ABC28208-1C  phases=1  wdg=1 bus=28208.3  kv=7.19955785679463  kVA=15  wdg=2 bus=X_28208.3  kv=0.24  kVA=15  %imag=0.5  %loadloss=1.65  %noloadloss=.25  XHL=2
New Transformer.MDV201_HN_2_626_C14867-1C  phases=1  wdg=1 bus=14867.3  kv=7.19955785679463  kVA=25  wdg=2 bus=X_14867.3  kv=0.24  kVA=25  %imag=0.5  %loadloss=1.5  %noloadloss=.25  XHL=2
New Transformer.MDV201_HN_2_073_A8183-1A  phases=1  wdg=1 bus=8183.1  kv=7.19955785679463  kVA=37.5   wdg=2 bus=X_8183.1  kv=0.24  kVA=37.5  %imag=0.5  %loadloss=1.4  %noloadloss=.25  XHL=2
New Transformer.MDV201_DA_8_360_B8205-1B  phases=1  wdg=1 bus=8205.2  kv=7.19955785679463  kVA=25  wdg=2 bus=X_8205.2  kv=0.24  kVA=25  %imag=0.5  %loadloss=1.5  %noloadloss=.25  XHL=2
New Transformer.MDV201_DA_8_780_A1144234-1A  phases=1  wdg=1 bus=1144234.1  kv=7.19955785679463  kVA=25  wdg=2 bus=X_1144234.1  kv=0.24  kVA=25  %imag=0.5  %loadloss=1.5  %noloadloss=.25  XHL=2
New Transformer.MDV201_DA_8_139_B56756-1B  phases=1  wdg=1 bus=56756.2  kv=7.19955785679463  kVA=25  wdg=2 bus=X_56756.2  kv=0.24  kVA=25  %imag=0.5  %loadloss=1.5  %noloadloss=.25  XHL=2
New Transformer.MDV201_HN_2_872_C63667-1C  phases=1  wdg=1 bus=63667.3  kv=7.19955785679463  kVA=25  wdg=2 bus=X_63667.3  kv=0.24  kVA=25  %imag=0.5  %loadloss=1.5  %noloadloss=.25  XHL=2
New Transformer.MDV201_HN_2_726_A63675-1A  phases=1  wdg=1 bus=63675.1  kv=7.19955785679463  kVA=25  wdg=2 bus=X_63675.1  kv=0.24  kVA=25  %imag=0.5  %loadloss=1.5  %noloadloss=.25  XHL=2
New Transformer.MDV201_HN_2_620_C28227-1C  phases=1  wdg=1 bus=28227.3  kv=7.19955785679463  kVA=25  wdg=2 bus=X_28227.3  kv=0.24  kVA=25  %imag=0.5  %loadloss=1.5  %noloadloss=.25  XHL=2
New Transformer.MDV201_DA_8_697_B46390-1B  phases=1  wdg=1 bus=46390.2  kv=7.19955785679463  kVA=37.5   wdg=2 bus=X_46390.2  kv=0.24  kVA=37.5  %imag=0.5  %loadloss=1.4  %noloadloss=.25  XHL=2
New Transformer.MDV201_HN_1_334_C28312-1C  phases=1  wdg=1 bus=28312.3  kv=7.19955785679463  kVA=15  wdg=2 bus=X_28312.3  kv=0.24  kVA=15  %imag=0.5  %loadloss=1.65  %noloadloss=.25  XHL=2
New Transformer.MDV201_DA_8_140_ABC56751-1A  phases=1  wdg=1 bus=56751.1  kv=7.19955785679463  kVA=25  wdg=2 bus=X_56751.1  kv=0.24  kVA=25  %imag=0.5  %loadloss=1.5  %noloadloss=.25  XHL=2
New Transformer.MDV201_HN_2_866_C63673-1C  phases=1  wdg=1 bus=63673.3  kv=7.19955785679463  kVA=25  wdg=2 bus=X_63673.3  kv=0.24  kVA=25  %imag=0.5  %loadloss=1.5  %noloadloss=.25  XHL=2
New Transformer.MDV201_HN_2_718_C14876-1C  phases=1  wdg=1 bus=14876.3  kv=7.19955785679463  kVA=37.5   wdg=2 bus=X_14876.3  kv=0.24  kVA=37.5  %imag=0.5  %loadloss=1.4  %noloadloss=.25  XHL=2
New Transformer.MDV201_HN_2_157_B14989-1B  phases=1  wdg=1 bus=14989.2  kv=7.19955785679463  kVA=10  wdg=2 bus=X_14989.2  kv=0.24  kVA=10  %imag=0.5  %loadloss=1.7  %noloadloss=.25  XHL=2
New Transformer.MDV201_HN_2_407_B809-1B  phases=1  wdg=1 bus=809.2  kv=7.19955785679463  kVA=37.5   wdg=2 bus=X_809.2  kv=0.24  kVA=37.5  %imag=0.5  %loadloss=1.4  %noloadloss=.25  XHL=2
New Transformer.MDV201_HN_1_401_A39574-1A  phases=1  wdg=1 bus=39574.1  kv=7.19955785679463  kVA=5  wdg=2 bus=X_39574.1  kv=0.24  kVA=5  %imag=0.5  %loadloss=1.75  %noloadloss=.25  XHL=2
New Transformer.MDV201_HN_2_536_C8093-1C  phases=1  wdg=1 bus=8093.3  kv=7.19955785679463  kVA=15  wdg=2 bus=X_8093.3  kv=0.24  kVA=15  %imag=0.5  %loadloss=1.65  %noloadloss=.25  XHL=2
New Transformer.MDV201_HN_2_857_B94741-1B  phases=1  wdg=1 bus=94741.2  kv=7.19955785679463  kVA=25  wdg=2 bus=X_94741.2  kv=0.24  kVA=25  %imag=0.5  %loadloss=1.5  %noloadloss=.25  XHL=2
New Transformer.MDV201_HN_2_710_C52529-1C  phases=1  wdg=1 bus=52529.3  kv=7.19955785679463  kVA=25  wdg=2 bus=X_52529.3  kv=0.24  kVA=25  %imag=0.5  %loadloss=1.5  %noloadloss=.25  XHL=2
New Transformer.MDV201_HN_2_541_ABC821-1B  phases=1  wdg=1 bus=821.2  kv=7.19955785679463  kVA=15  wdg=2 bus=X_821.2  kv=0.24  kVA=15  %imag=0.5  %loadloss=1.65  %noloadloss=.25  XHL=2
New Transformer.MDV201_HN_21041_C39773-1C  phases=1  wdg=1 bus=39773.3  kv=7.19955785679463  kVA=25  wdg=2 bus=X_39773.3  kv=0.24  kVA=25  %imag=0.5  %loadloss=1.5  %noloadloss=.25  XHL=2
New Transformer.MDV201_HN_2_602_A8151-1A  phases=1  wdg=1 bus=8151.1  kv=7.19955785679463  kVA=25  wdg=2 bus=X_8151.1  kv=0.24  kVA=25  %imag=0.5  %loadloss=1.5  %noloadloss=.25  XHL=2
New Transformer.MDV201_HN_2_391_B63644-1B  phases=1  wdg=1 bus=63644.2  kv=7.19955785679463  kVA=25  wdg=2 bus=X_63644.2  kv=0.24  kVA=25  %imag=0.5  %loadloss=1.5  %noloadloss=.25  XHL=2
New Transformer.MDV201_HN_2_966_A63718-1A  phases=1  wdg=1 bus=63718.1  kv=7.19955785679463  kVA=25  wdg=2 bus=X_63718.1  kv=0.24  kVA=25  %imag=0.5  %loadloss=1.5  %noloadloss=.25  XHL=2
New Transformer.MDV201_HN_2_850_B52520-1B  phases=1  wdg=1 bus=52520.2  kv=7.19955785679463  kVA=25  wdg=2 bus=X_52520.2  kv=0.24  kVA=25  %imag=0.5  %loadloss=1.5  %noloadloss=.25  XHL=2
New Transformer.MDV201_HN_2_697_C8125-1C  phases=1  wdg=1 bus=8125.3  kv=7.19955785679463  kVA=37.5   wdg=2 bus=X_8125.3  kv=0.24  kVA=37.5  %imag=0.5  %loadloss=1.4  %noloadloss=.25  XHL=2
New Transformer.MDV201_HN_2_405_B803-1B  phases=1  wdg=1 bus=803.2  kv=7.19955785679463  kVA=25  wdg=2 bus=X_803.2  kv=0.24  kVA=25  %imag=0.5  %loadloss=1.5  %noloadloss=.25  XHL=2
New Transformer.MDV201_HN_2_030_ABC62265-1B  phases=1  wdg=1 bus=62265.2  kv=7.19955785679463  kVA=25  wdg=2 bus=X_62265.2  kv=0.24  kVA=25  %imag=0.5  %loadloss=1.5  %noloadloss=.25  XHL=2
New Transformer.MDV201_DA_8_736_C74436-1C  phases=1  wdg=1 bus=74436.3  kv=7.19955785679463  kVA=25  wdg=2 bus=X_74436.3  kv=0.24  kVA=25  %imag=0.5  %loadloss=1.5  %noloadloss=.25  XHL=2
New Transformer.MDV201_HN_2_538_C8095-1C  phases=1  wdg=1 bus=8095.3  kv=7.19955785679463  kVA=37.5   wdg=2 bus=X_8095.3  kv=0.24  kVA=37.5  %imag=0.5  %loadloss=1.4  %noloadloss=.25  XHL=2
New Transformer.MDV201_DA_8_917_A56768-1A  phases=1  wdg=1 bus=56768.1  kv=7.19955785679463  kVA=15  wdg=2 bus=X_56768.1  kv=0.24  kVA=15  %imag=0.5  %loadloss=1.65  %noloadloss=.25  XHL=2
New Transformer.MDV201_HN_2_956_B39753-1B  phases=1  wdg=1 bus=39753.2  kv=7.19955785679463  kVA=37.5   wdg=2 bus=X_39753.2  kv=0.24  kVA=37.5  %imag=0.5  %loadloss=1.4  %noloadloss=.25  XHL=2
New Transformer.MDV201_HN_2_844_B69622-1B  phases=1  wdg=1 bus=69622.2  kv=7.19955785679463  kVA=25  wdg=2 bus=X_69622.2  kv=0.24  kVA=25  %imag=0.5  %loadloss=1.5  %noloadloss=.25  XHL=2
New Transformer.MDV201_HN_2_676_C62306-1C  phases=1  wdg=1 bus=62306.3  kv=7.19955785679463  kVA=37.5   wdg=2 bus=X_62306.3  kv=0.24  kVA=37.5  %imag=0.5  %loadloss=1.4  %noloadloss=.25  XHL=2
New Transformer.MDV201_HN_2_412_A832-1A  phases=1  wdg=1 bus=832.1  kv=7.19955785679463  kVA=25  wdg=2 bus=X_832.1  kv=0.24  kVA=25  %imag=0.5  %loadloss=1.5  %noloadloss=.25  XHL=2
New Transformer.MDV201_HN_2_115_ABC58446-1B  phases=1  wdg=1 bus=58446.2  kv=7.19955785679463  kVA=15  wdg=2 bus=X_58446.2  kv=0.24  kVA=15  %imag=0.5  %loadloss=1.65  %noloadloss=.25  XHL=2
New Transformer.MDV201_HN_2_115_ABC58446-1C  phases=1  wdg=1 bus=58446.3  kv=7.19955785679463  kVA=37.5   wdg=2 bus=X_58446.3  kv=0.24  kVA=37.5  %imag=0.5  %loadloss=1.4  %noloadloss=.25  XHL=2
New Transformer.MDV201_HN_1_153_C1012415-1C  phases=1  wdg=1 bus=1012415.3  kv=7.19955785679463  kVA=25  wdg=2 bus=X_1012415.3  kv=0.24  kVA=25  %imag=0.5  %loadloss=1.5  %noloadloss=.25  XHL=2
New Transformer.MDV201_8075ELB-1A  phases=1  wdg=1 bus=8075.1  kv=7.19955785679463  kVA=25  wdg=2 bus=X_8075.1  kv=0.24  kVA=25  %imag=0.5  %loadloss=1.5  %noloadloss=.25  XHL=2
New Transformer.MDV201_HN_2_950_C8190-1C  phases=1  wdg=1 bus=8190.3  kv=7.19955785679463  kVA=25  wdg=2 bus=X_8190.3  kv=0.24  kVA=25  %imag=0.5  %loadloss=1.5  %noloadloss=.25  XHL=2
New Transformer.MDV201_HN_2_838_B39578-1B  phases=1  wdg=1 bus=39578.2  kv=7.19955785679463  kVA=25  wdg=2 bus=X_39578.2  kv=0.24  kVA=25  %imag=0.5  %loadloss=1.5  %noloadloss=.25  XHL=2
New Transformer.MDV201_HN_2_670_C89784-1C  phases=1  wdg=1 bus=89784.3  kv=7.19955785679463  kVA=25  wdg=2 bus=X_89784.3  kv=0.24  kVA=25  %imag=0.5  %loadloss=1.5  %noloadloss=.25  XHL=2
New Transformer.MDV201_HN_2_424_A784-1A  phases=1  wdg=1 bus=784.1  kv=7.19955785679463  kVA=25  wdg=2 bus=X_784.1  kv=0.24  kVA=25  %imag=0.5  %loadloss=1.5  %noloadloss=.25  XHL=2
New Transformer.MDV201_HN_2_394_ABC63658-1B  phases=1  wdg=1 bus=63658.2  kv=7.19955785679463  kVA=10  wdg=2 bus=X_63658.2  kv=0.24  kVA=10  %imag=0.5  %loadloss=1.7  %noloadloss=.25  XHL=2
New Transformer.MDV201_HN_2_064_C14871-1C  phases=1  wdg=1 bus=14871.3  kv=7.19955785679463  kVA=37.5   wdg=2 bus=X_14871.3  kv=0.24  kVA=37.5  %imag=0.5  %loadloss=1.4  %noloadloss=.25  XHL=2
New Transformer.MDV201_HN_2_100_A39592-1A  phases=1  wdg=1 bus=39592.1  kv=7.19955785679463  kVA=15  wdg=2 bus=X_39592.1  kv=0.24  kVA=15  %imag=0.5  %loadloss=1.65  %noloadloss=.25  XHL=2
New Transformer.MDV201_HN_1_167_A39572-1A  phases=1  wdg=1 bus=39572.1  kv=7.19955785679463  kVA=25  wdg=2 bus=X_39572.1  kv=0.24  kVA=25  %imag=0.5  %loadloss=1.5  %noloadloss=.25  XHL=2
New Transformer.MDV201_HN_2_832_B69491-1B  phases=1  wdg=1 bus=69491.2  kv=7.19955785679463  kVA=25  wdg=2 bus=X_69491.2  kv=0.24  kVA=25  %imag=0.5  %loadloss=1.5  %noloadloss=.25  XHL=2
New Transformer.MDV201_HN_21006_C1008222-1C  phases=1  wdg=1 bus=1008222.3  kv=7.19955785679463  kVA=37.5   wdg=2 bus=X_1008222.3  kv=0.24  kVA=37.5  %imag=0.5  %loadloss=1.4  %noloadloss=.25  XHL=2
New Transformer.MDV201_HN_2_466_C62235-1C  phases=1  wdg=1 bus=62235.3  kv=7.19955785679463  kVA=37.5   wdg=2 bus=X_62235.3  kv=0.24  kVA=37.5  %imag=0.5  %loadloss=1.4  %noloadloss=.25  XHL=2
New Transformer.MDV201_C_1_407_A8136-1A  phases=1  wdg=1 bus=8136.1  kv=7.19955785679463  kVA=50  wdg=2 bus=X_8136.1  kv=0.24  kVA=50  %imag=0.5  %loadloss=1.3  %noloadloss=.25  XHL=2
New Transformer.MDV201_HN_2_607_A21652-1A  phases=1  wdg=1 bus=21652.1  kv=7.19955785679463  kVA=37.5   wdg=2 bus=X_21652.1  kv=0.24  kVA=37.5  %imag=0.5  %loadloss=1.4  %noloadloss=.25  XHL=2
New Transformer.MDV201_HN_2_937_B14993-1B  phases=1  wdg=1 bus=14993.2  kv=7.19955785679463  kVA=25  wdg=2 bus=X_14993.2  kv=0.24  kVA=25  %imag=0.5  %loadloss=1.5  %noloadloss=.25  XHL=2
New Transformer.MDV201_HN_2_822_B39619-1B  phases=1  wdg=1 bus=39619.2  kv=7.19955785679463  kVA=25  wdg=2 bus=X_39619.2  kv=0.24  kVA=25  %imag=0.5  %loadloss=1.5  %noloadloss=.25  XHL=2
New Transformer.MDV201_HN_2_518_AC8086-1C  phases=1  wdg=1 bus=8086.3  kv=7.19955785679463  kVA=25  wdg=2 bus=X_8086.3  kv=0.24  kVA=25  %imag=0.5  %loadloss=1.5  %noloadloss=.25  XHL=2
New Transformer.MDV201_HN_2_232_C14835-1C  phases=1  wdg=1 bus=14835.3  kv=7.19955785679463  kVA=25  wdg=2 bus=X_14835.3  kv=0.24  kVA=25  %imag=0.5  %loadloss=1.5  %noloadloss=.25  XHL=2
New Transformer.MDV201_HN_2_487_C8099-1C  phases=1  wdg=1 bus=8099.3  kv=7.19955785679463  kVA=25  wdg=2 bus=X_8099.3  kv=0.24  kVA=25  %imag=0.5  %loadloss=1.5  %noloadloss=.25  XHL=2
New Transformer.MDV201_1145434ELB-1C  phases=1  wdg=1 bus=1145434.3  kv=7.19955785679463  kVA=75  wdg=2 bus=X_1145434.3  kv=0.24  kVA=75  %imag=0.5  %loadloss=1.2  %noloadloss=.25  XHL=2
New Transformer.MDV201_DA_8_688_B74451-1B  phases=1  wdg=1 bus=74451.2  kv=7.19955785679463  kVA=50  wdg=2 bus=X_74451.2  kv=0.24  kVA=50  %imag=0.5  %loadloss=1.3  %noloadloss=.25  XHL=2
New Transformer.MDV201_HN_2_930_B62301-1B  phases=1  wdg=1 bus=62301.2  kv=7.19955785679463  kVA=25  wdg=2 bus=X_62301.2  kv=0.24  kVA=25  %imag=0.5  %loadloss=1.5  %noloadloss=.25  XHL=2
New Transformer.MDV201_HN_2_816_ABC14879-1A  phases=1  wdg=1 bus=14879.1  kv=7.19955785679463  kVA=25  wdg=2 bus=X_14879.1  kv=0.24  kVA=25  %imag=0.5  %loadloss=1.5  %noloadloss=.25  XHL=2
New Transformer.MDV201_HN_2_651_A28243-1A  phases=1  wdg=1 bus=28243.1  kv=7.19955785679463  kVA=25  wdg=2 bus=X_28243.1  kv=0.24  kVA=25  %imag=0.5  %loadloss=1.5  %noloadloss=.25  XHL=2
New Transformer.MDV201_HN_2_532_A8118-1A  phases=1  wdg=1 bus=8118.1  kv=7.19955785679463  kVA=25  wdg=2 bus=X_8118.1  kv=0.24  kVA=25  %imag=0.5  %loadloss=1.5  %noloadloss=.25  XHL=2
New Transformer.MDV201_1144238USD-1A  phases=1  wdg=1 bus=1144238.1  kv=7.19955785679463  kVA=15  wdg=2 bus=X_1144238.1  kv=0.24  kVA=15  %imag=0.5  %loadloss=1.65  %noloadloss=.25  XHL=2
New Transformer.MDV201_HN_2_082_ABC62250-1B  phases=1  wdg=1 bus=62250.2  kv=7.19955785679463  kVA=25  wdg=2 bus=X_62250.2  kv=0.24  kVA=25  %imag=0.5  %loadloss=1.5  %noloadloss=.25  XHL=2
New Transformer.MDV201_DA_8_690_B46385-1B  phases=1  wdg=1 bus=46385.2  kv=7.19955785679463  kVA=25  wdg=2 bus=X_46385.2  kv=0.24  kVA=25  %imag=0.5  %loadloss=1.5  %noloadloss=.25  XHL=2
New Transformer.MDV201_DA_8_769_C46401-1C  phases=1  wdg=1 bus=46401.3  kv=7.19955785679463  kVA=37.5   wdg=2 bus=X_46401.3  kv=0.24  kVA=37.5  %imag=0.5  %loadloss=1.4  %noloadloss=.25  XHL=2
New Transformer.MDV201_HN_2_645_A28234-1A  phases=1  wdg=1 bus=28234.1  kv=7.19955785679463  kVA=25  wdg=2 bus=X_28234.1  kv=0.24  kVA=25  %imag=0.5  %loadloss=1.5  %noloadloss=.25  XHL=2
New Transformer.MDV201_HN_2_013_C28260-1C  phases=1  wdg=1 bus=28260.3  kv=7.19955785679463  kVA=25  wdg=2 bus=X_28260.3  kv=0.24  kVA=25  %imag=0.5  %loadloss=1.5  %noloadloss=.25  XHL=2
New Transformer.MDV201_HN_2_519_AC8090-1C  phases=1  wdg=1 bus=8090.3  kv=7.19955785679463  kVA=25  wdg=2 bus=X_8090.3  kv=0.24  kVA=25  %imag=0.5  %loadloss=1.5  %noloadloss=.25  XHL=2
New Transformer.MDV201_8077ELB-1A  phases=1  wdg=1 bus=8077.1  kv=7.19955785679463  kVA=25  wdg=2 bus=X_8077.1  kv=0.24  kVA=25  %imag=0.5  %loadloss=1.5  %noloadloss=.25  XHL=2
New Transformer.MDV201_HN_2_156_B39758-1B  phases=1  wdg=1 bus=39758.2  kv=7.19955785679463  kVA=25  wdg=2 bus=X_39758.2  kv=0.24  kVA=25  %imag=0.5  %loadloss=1.5  %noloadloss=.25  XHL=2
New Transformer.MDV201_1012644ELB-1C  phases=1  wdg=1 bus=1012644.3  kv=7.19955785679463  kVA=25  wdg=2 bus=X_1012644.3  kv=0.24  kVA=25  %imag=0.5  %loadloss=1.5  %noloadloss=.25  XHL=2
New Transformer.MDV201_C_1_132_ABC69478-1B  phases=1  wdg=1 bus=69478.2  kv=7.19955785679463  kVA=37.5   wdg=2 bus=X_69478.2  kv=0.24  kVA=37.5  %imag=0.5  %loadloss=1.4  %noloadloss=.25  XHL=2
New Transformer.MDV201_DA_8_928_A39733-1A  phases=1  wdg=1 bus=39733.1  kv=7.19955785679463  kVA=37.5   wdg=2 bus=X_39733.1  kv=0.24  kVA=37.5  %imag=0.5  %loadloss=1.4  %noloadloss=.25  XHL=2
New Transformer.MDV201_HN_2_911_C44579-1C  phases=1  wdg=1 bus=44579.3  kv=7.19955785679463  kVA=25  wdg=2 bus=X_44579.3  kv=0.24  kVA=25  %imag=0.5  %loadloss=1.5  %noloadloss=.25  XHL=2
New Transformer.MDV201_HN_2_804_B39625-1B  phases=1  wdg=1 bus=39625.2  kv=7.19955785679463  kVA=50  wdg=2 bus=X_39625.2  kv=0.24  kVA=50  %imag=0.5  %loadloss=1.3  %noloadloss=.25  XHL=2
New Transformer.MDV201_HN_2_534_A8119-1A  phases=1  wdg=1 bus=8119.1  kv=7.19955785679463  kVA=25  wdg=2 bus=X_8119.1  kv=0.24  kVA=25  %imag=0.5  %loadloss=1.5  %noloadloss=.25  XHL=2
New Transformer.MDV201_HN_2_488_C8103-1C  phases=1  wdg=1 bus=8103.3  kv=7.19955785679463  kVA=15  wdg=2 bus=X_8103.3  kv=0.24  kVA=15  %imag=0.5  %loadloss=1.65  %noloadloss=.25  XHL=2
New Transformer.MDV201_C_1_321_A69464-1A  phases=1  wdg=1 bus=69464.1  kv=7.19955785679463  kVA=25  wdg=2 bus=X_69464.1  kv=0.24  kVA=25  %imag=0.5  %loadloss=1.5  %noloadloss=.25  XHL=2
New Transformer.MDV201_HN_2_089_ABC8163-1C  phases=1  wdg=1 bus=8163.3  kv=7.19955785679463  kVA=37.5   wdg=2 bus=X_8163.3  kv=0.24  kVA=37.5  %imag=0.5  %loadloss=1.4  %noloadloss=.25  XHL=2
New Transformer.MDV201_HN_2_896_B52516-1B  phases=1  wdg=1 bus=52516.2  kv=7.19955785679463  kVA=25  wdg=2 bus=X_52516.2  kv=0.24  kVA=25  %imag=0.5  %loadloss=1.5  %noloadloss=.25  XHL=2
New Transformer.MDV201_HN_2_633_C28239-1C  phases=1  wdg=1 bus=28239.3  kv=7.19955785679463  kVA=25  wdg=2 bus=X_28239.3  kv=0.24  kVA=25  %imag=0.5  %loadloss=1.5  %noloadloss=.25  XHL=2
New Transformer.MDV201_HN_2_526_C860-1C  phases=1  wdg=1 bus=860.3  kv=7.19955785679463  kVA=25  wdg=2 bus=X_860.3  kv=0.24  kVA=25  %imag=0.5  %loadloss=1.5  %noloadloss=.25  XHL=2
New Transformer.MDV201_HN_2_457_C62244-1C  phases=1  wdg=1 bus=62244.3  kv=7.19955785679463  kVA=25  wdg=2 bus=X_62244.3  kv=0.24  kVA=25  %imag=0.5  %loadloss=1.5  %noloadloss=.25  XHL=2
New Transformer.MDV201_HN_2_121_C28294-1C  phases=1  wdg=1 bus=28294.3  kv=7.19955785679463  kVA=25  wdg=2 bus=X_28294.3  kv=0.24  kVA=25  %imag=0.5  %loadloss=1.5  %noloadloss=.25  XHL=2
New Transformer.MDV201_HN_2_076_A14843-1A  phases=1  wdg=1 bus=14843.1  kv=7.19955785679463  kVA=10  wdg=2 bus=X_14843.1  kv=0.24  kVA=10  %imag=0.5  %loadloss=1.7  %noloadloss=.25  XHL=2
New Transformer.MDV201_DA_8_926_A74421-1A  phases=1  wdg=1 bus=74421.1  kv=7.19955785679463  kVA=37.5   wdg=2 bus=X_74421.1  kv=0.24  kVA=37.5  %imag=0.5  %loadloss=1.4  %noloadloss=.25  XHL=2
New Transformer.MDV201_HN_2_027_A39614-1A  phases=1  wdg=1 bus=39614.1  kv=7.19955785679463  kVA=15  wdg=2 bus=X_39614.1  kv=0.24  kVA=15  %imag=0.5  %loadloss=1.65  %noloadloss=.25  XHL=2
New Transformer.MDV201_DA_8_930_A39751-1A  phases=1  wdg=1 bus=39751.1  kv=7.19955785679463  kVA=37.5   wdg=2 bus=X_39751.1  kv=0.24  kVA=37.5  %imag=0.5  %loadloss=1.4  %noloadloss=.25  XHL=2
New Transformer.MDV201_8082ELB-1A  phases=1  wdg=1 bus=8082.1  kv=7.19955785679463  kVA=37.5   wdg=2 bus=X_8082.1  kv=0.24  kVA=37.5  %imag=0.5  %loadloss=1.4  %noloadloss=.25  XHL=2
New Transformer.MDV201_HN_2_879_B825-1B  phases=1  wdg=1 bus=825.2  kv=7.19955785679463  kVA=25  wdg=2 bus=X_825.2  kv=0.24  kVA=25  %imag=0.5  %loadloss=1.5  %noloadloss=.25  XHL=2
New Transformer.MDV201_HN_2_627_C14868-1C  phases=1  wdg=1 bus=14868.3  kv=7.19955785679463  kVA=15  wdg=2 bus=X_14868.3  kv=0.24  kVA=15  %imag=0.5  %loadloss=1.65  %noloadloss=.25  XHL=2
New Transformer.MDV201_HN_2_522_C855-1C  phases=1  wdg=1 bus=855.3  kv=7.19955785679463  kVA=37.5   wdg=2 bus=X_855.3  kv=0.24  kVA=37.5  %imag=0.5  %loadloss=1.4  %noloadloss=.25  XHL=2
New Transformer.MDV201_HN_2_465_C62233-1C  phases=1  wdg=1 bus=62233.3  kv=7.19955785679463  kVA=37.5   wdg=2 bus=X_62233.3  kv=0.24  kVA=37.5  %imag=0.5  %loadloss=1.4  %noloadloss=.25  XHL=2
New Transformer.MDV201_1144257FUSE-1C  phases=1  wdg=1 bus=1144257.3  kv=7.19955785679463  kVA=15  wdg=2 bus=X_1144257.3  kv=0.24  kVA=15  %imag=0.5  %loadloss=1.65  %noloadloss=.25  XHL=2
New Transformer.MDV201_HN_1_275_A94744-1A  phases=1  wdg=1 bus=94744.1  kv=7.19955785679463  kVA=15  wdg=2 bus=X_94744.1  kv=0.24  kVA=15  %imag=0.5  %loadloss=1.65  %noloadloss=.25  XHL=2
New Transformer.MDV201_DA_8_740_ABC6594-1B  phases=1  wdg=1 bus=6594.2  kv=7.19955785679463  kVA=37.5   wdg=2 bus=X_6594.2  kv=0.24  kVA=37.5  %imag=0.5  %loadloss=1.4  %noloadloss=.25  XHL=2
New Transformer.MDV201_HN_2_728_B15009-1B  phases=1  wdg=1 bus=15009.2  kv=7.19955785679463  kVA=10  wdg=2 bus=X_15009.2  kv=0.24  kVA=10  %imag=0.5  %loadloss=1.7  %noloadloss=.25  XHL=2
New Transformer.MDV201_HN_2_621_C28222-1C  phases=1  wdg=1 bus=28222.3  kv=7.19955785679463  kVA=37.5   wdg=2 bus=X_28222.3  kv=0.24  kVA=37.5  %imag=0.5  %loadloss=1.4  %noloadloss=.25  XHL=2
New Transformer.MDV201_HN_2_291_ABC63681-1A  phases=1  wdg=1 bus=63681.1  kv=7.19955785679463  kVA=37.5   wdg=2 bus=X_63681.1  kv=0.24  kVA=37.5  %imag=0.5  %loadloss=1.4  %noloadloss=.25  XHL=2
New Transformer.MDV201_HN_2_164_B6574-1B  phases=1  wdg=1 bus=6574.2  kv=7.19955785679463  kVA=15  wdg=2 bus=X_6574.2  kv=0.24  kVA=15  %imag=0.5  %loadloss=1.65  %noloadloss=.25  XHL=2
New Transformer.MDV201_8101ELB-1A  phases=1  wdg=1 bus=8101.1  kv=7.19955785679463  kVA=37.5   wdg=2 bus=X_8101.1  kv=0.24  kVA=37.5  %imag=0.5  %loadloss=1.4  %noloadloss=.25  XHL=2
New Transformer.MDV201_HN_2_429_B807-1B  phases=1  wdg=1 bus=807.2  kv=7.19955785679463  kVA=37.5   wdg=2 bus=X_807.2  kv=0.24  kVA=37.5  %imag=0.5  %loadloss=1.4  %noloadloss=.25  XHL=2
New Transformer.MDV201_DA_8_931_A74443-1A  phases=1  wdg=1 bus=74443.1  kv=7.19955785679463  kVA=37.5   wdg=2 bus=X_74443.1  kv=0.24  kVA=37.5  %imag=0.5  %loadloss=1.4  %noloadloss=.25  XHL=2
New Transformer.MDV201_HN_2_128_ABC28288-1B  phases=1  wdg=1 bus=28288.2  kv=7.19955785679463  kVA=37.5   wdg=2 bus=X_28288.2  kv=0.24  kVA=37.5  %imag=0.5  %loadloss=1.4  %noloadloss=.25  XHL=2
New Transformer.MDV201_HN_2_867_C839-1C  phases=1  wdg=1 bus=839.3  kv=7.19955785679463  kVA=25  wdg=2 bus=X_839.3  kv=0.24  kVA=25  %imag=0.5  %loadloss=1.5  %noloadloss=.25  XHL=2
New Transformer.MDV201_HN_2_719_C14872-1C  phases=1  wdg=1 bus=14872.3  kv=7.19955785679463  kVA=25  wdg=2 bus=X_14872.3  kv=0.24  kVA=25  %imag=0.5  %loadloss=1.5  %noloadloss=.25  XHL=2
New Transformer.MDV201_HN_2_031_ABC62264-1B  phases=1  wdg=1 bus=62264.2  kv=7.19955785679463  kVA=25  wdg=2 bus=X_62264.2  kv=0.24  kVA=25  %imag=0.5  %loadloss=1.5  %noloadloss=.25  XHL=2
New Transformer.MDV201_HN_21050_B62307-1B  phases=1  wdg=1 bus=62307.2  kv=7.19955785679463  kVA=25  wdg=2 bus=X_62307.2  kv=0.24  kVA=25  %imag=0.5  %loadloss=1.5  %noloadloss=.25  XHL=2
New Transformer.MDV201_C_1_400_A21653-1A  phases=1  wdg=1 bus=21653.1  kv=7.19955785679463  kVA=25  wdg=2 bus=X_21653.1  kv=0.24  kVA=25  %imag=0.5  %loadloss=1.5  %noloadloss=.25  XHL=2
New Transformer.MDV201_HN_2_458_B39599-1B  phases=1  wdg=1 bus=39599.2  kv=7.19955785679463  kVA=37.5   wdg=2 bus=X_39599.2  kv=0.24  kVA=37.5  %imag=0.5  %loadloss=1.4  %noloadloss=.25  XHL=2
New Transformer.MDV201_8147ELB-1A  phases=1  wdg=1 bus=8147.1  kv=7.19955785679463  kVA=25  wdg=2 bus=X_8147.1  kv=0.24  kVA=25  %imag=0.5  %loadloss=1.5  %noloadloss=.25  XHL=2
New Transformer.MDV201_HN_2_858_B94733-1B  phases=1  wdg=1 bus=94733.2  kv=7.19955785679463  kVA=37.5   wdg=2 bus=X_94733.2  kv=0.24  kVA=37.5  %imag=0.5  %loadloss=1.4  %noloadloss=.25  XHL=2
New Transformer.MDV201_HN_2_711_A63676-1A  phases=1  wdg=1 bus=63676.1  kv=7.19955785679463  kVA=25  wdg=2 bus=X_63676.1  kv=0.24  kVA=25  %imag=0.5  %loadloss=1.5  %noloadloss=.25  XHL=2
New Transformer.MDV201_HN_2_606_A8132-1A  phases=1  wdg=1 bus=8132.1  kv=7.19955785679463  kVA=25  wdg=2 bus=X_8132.1  kv=0.24  kVA=25  %imag=0.5  %loadloss=1.5  %noloadloss=.25  XHL=2
New Transformer.MDV201_HN_21016_C63717-1C  phases=1  wdg=1 bus=63717.3  kv=7.19955785679463  kVA=25  wdg=2 bus=X_63717.3  kv=0.24  kVA=25  %imag=0.5  %loadloss=1.5  %noloadloss=.25  XHL=2
New Transformer.MDV201_HN_2_426_B816-1B  phases=1  wdg=1 bus=816.2  kv=7.19955785679463  kVA=25  wdg=2 bus=X_816.2  kv=0.24  kVA=25  %imag=0.5  %loadloss=1.5  %noloadloss=.25  XHL=2
New Transformer.MDV201_C_1_067_ABC8072-1B  phases=1  wdg=1 bus=8072.2  kv=7.19955785679463  kVA=25  wdg=2 bus=X_8072.2  kv=0.24  kVA=25  %imag=0.5  %loadloss=1.5  %noloadloss=.25  XHL=2
New Transformer.MDV201_HN_2_967_A63715-1A  phases=1  wdg=1 bus=63715.1  kv=7.19955785679463  kVA=25  wdg=2 bus=X_63715.1  kv=0.24  kVA=25  %imag=0.5  %loadloss=1.5  %noloadloss=.25  XHL=2
New Transformer.MDV201_HN_2_851_B52519-1B  phases=1  wdg=1 bus=52519.2  kv=7.19955785679463  kVA=37.5   wdg=2 bus=X_52519.2  kv=0.24  kVA=37.5  %imag=0.5  %loadloss=1.4  %noloadloss=.25  XHL=2
New Transformer.MDV201_HN_2_705_ABC52524-1A  phases=1  wdg=1 bus=52524.1  kv=7.19955785679463  kVA=25  wdg=2 bus=X_52524.1  kv=0.24  kVA=25  %imag=0.5  %loadloss=1.5  %noloadloss=.25  XHL=2
New Transformer.MDV201_HN_2_015_ABC63665-1A  phases=1  wdg=1 bus=63665.1  kv=7.19955785679463  kVA=25  wdg=2 bus=X_63665.1  kv=0.24  kVA=25  %imag=0.5  %loadloss=1.5  %noloadloss=.25  XHL=2
New Transformer.MDV201_HN_2_430_B797-1B  phases=1  wdg=1 bus=797.2  kv=7.19955785679463  kVA=25  wdg=2 bus=X_797.2  kv=0.24  kVA=25  %imag=0.5  %loadloss=1.5  %noloadloss=.25  XHL=2
New Transformer.MDV201_HN_1_150_C1012408-1C  phases=1  wdg=1 bus=1012408.3  kv=7.19955785679463  kVA=25  wdg=2 bus=X_1012408.3  kv=0.24  kVA=25  %imag=0.5  %loadloss=1.5  %noloadloss=.25  XHL=2
New Transformer.MDV201_DA_8_804_ABC88656-1C  phases=1  wdg=1 bus=88656.3  kv=7.19955785679463  kVA=15  wdg=2 bus=X_88656.3  kv=0.24  kVA=15  %imag=0.5  %loadloss=1.65  %noloadloss=.25  XHL=2
...
