omf/scratch/OLD/OpenDssDemo/example/ckt5_VLN_Node.Txt

NODE-GROUND VOLTAGES BY BUS & NODE

Bus                            Node    V (kV)    Angle      p.u.   Base kV

SOURCEBUS .................... 1       69.715 /_    0.0      1.05   115.000
   -                           2       69.715 /_ -120.0      1.05   115.000
   -                           3       69.715 /_  120.0      1.05   115.000
_MDV_SUB_1_LSB ............... 1       7.3186 /_  -33.4    1.0165    12.470
   -                           2       7.3072 /_ -153.7    1.0149    12.470
   -                           3       7.3193 /_   86.7    1.0166    12.470
MDV201 ....................... 1       7.3186 /_  -33.4    1.0165    12.470
   -                           2       7.3072 /_ -153.7    1.0149    12.470
   -                           3       7.3193 /_   86.7    1.0166    12.470
94743 ........................ 1       7.1121 /_  -34.2   0.98785    12.470
94744 ........................ 1        7.112 /_  -34.2   0.98784    12.470
62244 ........................ 3       7.1705 /_   85.3   0.99597    12.470
62235 ........................ 3       7.1698 /_   85.3   0.99586    12.470
1144235 ...................... 1       7.1497 /_  -34.7   0.99308    12.470
1144234 ...................... 1       7.1494 /_  -34.7   0.99303    12.470
39754 ........................ 2       6.9959 /_ -155.3   0.97171    12.470
MDV201_1160486ELB_INT ........ 2       6.9959 /_ -155.3   0.97171    12.470
1160486 ...................... 2       6.9959 /_ -155.3   0.97171    12.470
1160476 ...................... 2       7.0005 /_ -155.3   0.97236    12.470
1160473 ...................... 2       6.9995 /_ -155.3   0.97222    12.470
8163 ......................... 1          7.2 /_  -34.3    1.0001    12.470
   -                           2       7.1951 /_ -154.5   0.99939    12.470
   -                           3       7.1944 /_   85.4   0.99929    12.470
8164 ......................... 1       7.1977 /_  -34.3   0.99974    12.470
   -                           2       7.1933 /_ -154.5   0.99913    12.470
   -                           3       7.1885 /_   85.4   0.99847    12.470
103730 ....................... 2       7.0904 /_ -155.2   0.98483    12.470
39610 ........................ 2       7.0903 /_ -155.2   0.98483    12.470
835 .......................... 1       7.2493 /_  -33.8    1.0069    12.470
842 .......................... 1       7.2485 /_  -33.8    1.0068    12.470
39775 ........................ 2       7.0027 /_ -155.3   0.97265    12.470
39760 ........................ 2       7.0022 /_ -155.3   0.97259    12.470
15004 ........................ 2       6.9984 /_ -155.3   0.97207    12.470
MDV201_1160480ELB_INT ........ 2       6.9984 /_ -155.3   0.97206    12.470
1160480 ...................... 2       6.9984 /_ -155.3   0.97206    12.470
1160492 ...................... 1       7.1298 /_  -34.2   0.99032    12.470
MDV201_8088ELB_INT ........... 1       7.1298 /_  -34.2   0.99031    12.470
8088 ......................... 1       7.1298 /_  -34.2   0.99031    12.470
829 .......................... 1       7.1767 /_  -34.2   0.99683    12.470
   -                           2       7.1642 /_ -154.9   0.99509    12.470
   -                           3        7.242 /_   85.6    1.0059    12.470
834 .......................... 1        7.169 /_  -34.2   0.99576    12.470
   -                           2       7.1549 /_ -154.9   0.99379    12.470
   -                           3       7.2369 /_   85.6    1.0052    12.470
15005 ........................ 2       6.9972 /_ -155.3   0.97189    12.470
MDV201_1160478ELB_INT ........ 2       6.9972 /_ -155.3   0.97189    12.470
1160478 ...................... 2       6.9972 /_ -155.3   0.97189    12.470
44582 ........................ 1       7.2039 /_  -34.3    1.0006    12.470
   -                           2       7.1988 /_ -154.5   0.99989    12.470
   -                           3       7.2053 /_   85.5    1.0008    12.470
8160 ......................... 1       7.2032 /_  -34.3    1.0005    12.470
   -                           2       7.1981 /_ -154.5    0.9998    12.470
   -                           3       7.2033 /_   85.5    1.0005    12.470
89783 ........................ 3       7.1532 /_   85.3   0.99356    12.470
89791 ........................ 3       7.1521 /_   85.3   0.99341    12.470
6584 ......................... 1       7.1524 /_  -34.6   0.99345    12.470
   -                           2       7.1862 /_ -154.6   0.99815    12.470
   -                           3       7.1573 /_   85.3   0.99413    12.470
99422 ........................ 1       7.1524 /_  -34.6   0.99345    12.470
8113 ......................... 1       7.1935 /_  -34.2   0.99916    12.470
   -                           2       7.1905 /_ -154.8   0.99874    12.470
   -                           3       7.2505 /_   85.6    1.0071    12.470
8124 ......................... 1       7.1924 /_  -34.2     0.999    12.470
   -                           2       7.1908 /_ -154.8   0.99878    12.470
   -                           3       7.2498 /_   85.6     1.007    12.470
14880 ........................ 1       7.2012 /_  -34.1    1.0002    12.470
   -                           2       7.1719 /_ -154.9   0.99616    12.470
   -                           3       7.2599 /_   85.6    1.0084    12.470
63707 ........................ 1       7.2003 /_  -34.0    1.0001    12.470
   -                           2       7.1685 /_ -154.9   0.99569    12.470
   -                           3        7.261 /_   85.6    1.0085    12.470
74449 ........................ 3        7.103 /_   85.1   0.98659    12.470
74450 ........................ 3       7.1028 /_   85.1   0.98657    12.470
14989 ........................ 2       7.0572 /_ -155.2   0.98022    12.470
100494 ....................... 2       7.0572 /_ -155.2   0.98022    12.470
63683 ........................ 1       7.2092 /_  -34.1    1.0013    12.470
   -                           3        7.258 /_   85.7    1.0081    12.470
107110 ....................... 1       7.2092 /_  -34.1    1.0013    12.470
   -                           3        7.258 /_   85.7    1.0081    12.470
1144242 ...................... 3       7.2494 /_   85.6    1.0069    12.470
8121 ......................... 3       7.2488 /_   85.6    1.0068    12.470
63668 ........................ 3       7.2238 /_   85.5    1.0034    12.470
63671 ........................ 3       7.2231 /_   85.5    1.0033    12.470
89784 ........................ 3       7.1582 /_   85.3   0.99426    12.470
89781 ........................ 3       7.1563 /_   85.3   0.99399    12.470
39734 ........................ 1       7.1259 /_  -34.7   0.98977    12.470
39751 ........................ 1       7.1254 /_  -34.7    0.9897    12.470
63657 ........................ 1       7.2293 /_  -34.0    1.0041    12.470
   -                           2       7.2203 /_ -154.5    1.0029    12.470
   -                           3       7.2658 /_   85.8    1.0092    12.470
63658 ........................ 1       7.2261 /_  -34.0    1.0037    12.470
   -                           2       7.2167 /_ -154.5    1.0024    12.470
   -                           3       7.2655 /_   85.8    1.0092    12.470
74445 ........................ 2       7.1612 /_ -154.6   0.99467    12.470
74448 ........................ 2       7.1597 /_ -154.6   0.99447    12.470
1012641 ...................... 3       7.2019 /_   85.5    1.0003    12.470
1012643 ...................... 3       7.2019 /_   85.5    1.0003    12.470
39570 ........................ 1       7.1127 /_  -34.2   0.98794    12.470
39569 ........................ 1       7.1125 /_  -34.2   0.98791    12.470
14858 ........................ 1       7.2103 /_  -34.2    1.0015    12.470
14869 ........................ 1       7.2103 /_  -34.2    1.0015    12.470
89796 ........................ 3       7.2044 /_   85.4    1.0007    12.470
89790 ........................ 3       7.2042 /_   85.4    1.0007    12.470
28271 ........................ 3       7.2666 /_   85.5    1.0093    12.470
28272 ........................ 3       7.2665 /_   85.5    1.0093    12.470
69478 ........................ 1       7.1272 /_  -34.2   0.98996    12.470
   -                           2       7.1029 /_ -155.1   0.98658    12.470
   -                           3       7.2305 /_   85.5    1.0043    12.470
69477 ........................ 1       7.1272 /_  -34.2   0.98996    12.470
   -                           2       7.1029 /_ -155.1   0.98658    12.470
   -                           3       7.2305 /_   85.5    1.0043    12.470
8175 ......................... 3       7.1504 /_   85.3   0.99317    12.470
8176 ......................... 3       7.1503 /_   85.3   0.99315    12.470
8184 ......................... 1       7.1964 /_  -34.0   0.99956    12.470
   -                           2       7.1509 /_ -155.0   0.99324    12.470
   -                           3       7.2666 /_   85.6    1.0093    12.470
1144230 ...................... 1       7.1964 /_  -34.0   0.99956    12.470
39595 ........................ 1       7.1201 /_  -34.2   0.98897    12.470
   -                           2       7.0855 /_ -155.2   0.98416    12.470
   -                           3       7.2263 /_   85.5    1.0037    12.470
39582 ........................ 1       7.1185 /_  -34.2   0.98874    12.470
   -                           2       7.0805 /_ -155.2   0.98346    12.470
   -                           3       7.2253 /_   85.5    1.0036    12.470
46385 ........................ 2       7.1555 /_ -154.6   0.99387    12.470
46386 ........................ 2       7.1546 /_ -154.6   0.99376    12.470
106884 ....................... 3       7.1711 /_   85.3   0.99605    12.470
1160493 ...................... 1       7.1327 /_  -34.2   0.99071    12.470
MDV201_8075ELB_INT ........... 1       7.1326 /_  -34.2    0.9907    12.470
8075 ......................... 1       7.1326 /_  -34.2    0.9907    12.470
69460 ........................ 1       7.1293 /_  -34.2   0.99025    12.470
MDV201_107997ELB_INT ......... 1       7.1293 /_  -34.2   0.99025    12.470
107997 ....................... 1       7.1293 /_  -34.2   0.99025    12.470
8180 ......................... 3       7.1502 /_   85.3   0.99315    12.470
1160461 ...................... 1       7.1416 /_  -34.2   0.99196    12.470
8100 ......................... 1       7.1401 /_  -34.2   0.99175    12.470
39776 ........................ 3       7.1815 /_   85.4    0.9975    12.470
33824 ........................ 3       7.1809 /_   85.4   0.99741    12.470
1140227 ...................... 1       7.2022 /_  -34.1    1.0004    12.470
14873 ........................ 1       7.2021 /_  -34.1    1.0003    12.470
1160488 ...................... 2       7.1881 /_ -154.5   0.99841    12.470
MDV201_62249ELB_INT .......... 2       7.1881 /_ -154.5   0.99841    12.470
62249 ........................ 2       7.1881 /_ -154.5   0.99841    12.470
107106 ....................... 2       7.2007 /_ -154.6    1.0002    12.470
63634 ........................ 2       7.1996 /_ -154.6         1    12.470
1160494 ...................... 1       7.1326 /_  -34.2    0.9907    12.470
1160467 ...................... 1       7.1321 /_  -34.2   0.99063    12.470
8185 ......................... 1       7.1963 /_  -34.0   0.99955    12.470
796 .......................... 1       7.3124 /_  -33.4    1.0157    12.470
   -                           2       7.3015 /_ -153.7    1.0142    12.470
   -                           3       7.3152 /_   86.6    1.0161    12.470
791 .......................... 1       7.3057 /_  -33.5    1.0147    12.470
   -                           2       7.2955 /_ -153.8    1.0133    12.470
   -                           3       7.3111 /_   86.6    1.0155    12.470
62306 ........................ 3       7.1535 /_   85.3    0.9936    12.470
62303 ........................ 3       7.1532 /_   85.3   0.99356    12.470
14839 ........................ 3       7.2635 /_   85.5    1.0089    12.470
100478 ....................... 3       7.2635 /_   85.5    1.0089    12.470
58441 ........................ 1        7.119 /_  -34.2   0.98881    12.470
   -                           2        7.075 /_ -155.2    0.9827    12.470
   -                           3       7.2067 /_   85.4     1.001    12.470
58446 ........................ 1        7.119 /_  -34.2   0.98881    12.470
   -                           2       7.0748 /_ -155.2   0.98268    12.470
   -                           3       7.2058 /_   85.4    1.0009    12.470
112112 ....................... 2       7.0773 /_ -155.2   0.98301    12.470
52515 ........................ 2       7.0769 /_ -155.2   0.98296    12.470
846 .......................... 1       7.1894 /_  -34.2   0.99859    12.470
   -                           2       7.1915 /_ -154.8   0.99888    12.470
   -                           3       7.2494 /_   85.6    1.0069    12.470
98795 ........................ 1       7.1894 /_  -34.2   0.99859    12.470
   -                           2       7.1915 /_ -154.8   0.99888    12.470
   -                           3       7.2494 /_   85.6    1.0069    12.470
39623 ........................ 2       7.1234 /_ -155.0   0.98942    12.470
39602 ........................ 2        7.123 /_ -155.0   0.98936    12.470
56777 ........................ 1       7.1452 /_  -34.7   0.99244    12.470
   -                           2       7.1819 /_ -154.6   0.99755    12.470
   -                           3       7.1519 /_   85.3   0.99338    12.470
56778 ........................ 1       7.1454 /_  -34.7   0.99248    12.470
   -                           2       7.1795 /_ -154.6   0.99721    12.470
   -                           3       7.1505 /_   85.3   0.99318    12.470
44586 ........................ 1       7.1915 /_  -34.4   0.99889    12.470
   -                           2       7.1891 /_ -154.5   0.99855    12.470
   -                           3       7.1739 /_   85.3   0.99644    12.470
62239 ........................ 1       7.1901 /_  -34.4   0.99869    12.470
   -                           2       7.1888 /_ -154.5   0.99851    12.470
   -                           3        7.173 /_   85.3   0.99631    12.470
46394 ........................ 1       7.1474 /_  -34.6   0.99275    12.470
   -                           2       7.1687 /_ -154.6   0.99571    12.470
   -                           3       7.1432 /_   85.2   0.99217    12.470
46393 ........................ 1       7.1474 /_  -34.6   0.99275    12.470
   -                           2       7.1687 /_ -154.6   0.99571    12.470
   -                           3       7.1432 /_   85.2   0.99217    12.470
1144254 ...................... 2       7.2075 /_ -154.5    1.0011    12.470
28246 ........................ 2       7.2075 /_ -154.5    1.0011    12.470
14996 ........................ 2       7.0048 /_ -155.3   0.97294    12.470
39771 ........................ 2       7.0045 /_ -155.3   0.97291    12.470
74432 ........................ 1       7.1461 /_  -34.6   0.99258    12.470
108776 ....................... 1       7.1461 /_  -34.6   0.99258    12.470
1160489 ...................... 1       7.2526 /_  -33.8    1.0074    12.470
MDV201_795ELB_INT ............ 1       7.2526 /_  -33.8    1.0074    12.470
795 .......................... 1       7.2526 /_  -33.8    1.0074    12.470
14879 ........................ 1       7.2022 /_  -34.1    1.0004    12.470
   -                           2       7.1761 /_ -154.8   0.99674    12.470
   -                           3       7.2587 /_   85.6    1.0082    12.470
8099 ......................... 3       7.2507 /_   85.6    1.0071    12.470
8103 ......................... 3       7.2503 /_   85.6    1.0071    12.470
1000983 ...................... 1        7.145 /_  -34.7   0.99242    12.470
56768 ........................ 1       7.1435 /_  -34.7   0.99222    12.470
62265 ........................ 1       7.1783 /_  -34.5   0.99705    12.470
   -                           2       7.1873 /_ -154.5    0.9983    12.470
   -                           3       7.1679 /_   85.3   0.99561    12.470
62262 ........................ 1       7.1753 /_  -34.5   0.99663    12.470
   -                           2       7.1873 /_ -154.5   0.99829    12.470
   -                           3       7.1667 /_   85.3   0.99544    12.470
39752 ........................ 2       7.0043 /_ -155.3   0.97289    12.470
1017350 ...................... 2       7.0032 /_ -155.3   0.97272    12.470
1017348 ...................... 2       7.0024 /_ -155.3   0.97262    12.470
56760 ........................ 1       7.1478 /_  -34.6   0.99281    12.470
56764 ........................ 1       7.1474 /_  -34.6   0.99275    12.470
39620 ........................ 2         7.13 /_ -155.0   0.99034    12.470
39617 ........................ 2       7.1296 /_ -155.0   0.99028    12.470
39589 ........................ 1        7.116 /_  -34.2   0.98839    12.470
39580 ........................ 1       7.1159 /_  -34.2   0.98838    12.470
74446 ........................ 3       7.1023 /_   85.1    0.9865    12.470
74440 ........................ 3        7.102 /_   85.1   0.98644    12.470
58430 ........................ 1        7.149 /_  -34.6   0.99298    12.470
   -                           2       7.1679 /_ -154.6    0.9956    12.470
   -                           3       7.1391 /_   85.2   0.99161    12.470
58429 ........................ 1       7.1497 /_  -34.6   0.99308    12.470
   -                           2       7.1675 /_ -154.6   0.99555    12.470
   -                           3       7.1375 /_   85.1   0.99138    12.470
28213 ........................ 1       7.1859 /_  -34.2    0.9981    12.470
21655 ........................ 1       7.1845 /_  -34.2    0.9979    12.470
63666 ........................ 1        7.207 /_  -34.1     1.001    12.470
   -                           3       7.2565 /_   85.7    1.0079    12.470
28249 ........................ 1        7.205 /_  -34.1    1.0008    12.470
   -                           3       7.2561 /_   85.7    1.0079    12.470
105409 ....................... 1       7.2043 /_  -34.1    1.0007    12.470
   -                           2       7.1823 /_ -154.8    0.9976    12.470
   -                           3       7.2568 /_   85.6    1.0079    12.470
52524 ........................ 1       7.2035 /_  -34.1    1.0005    12.470
   -                           2         7.18 /_ -154.8   0.99728    12.470
   -                           3       7.2576 /_   85.6    1.0081    12.470
74424 ........................ 1       7.1279 /_  -34.7   0.99005    12.470
39733 ........................ 1       7.1267 /_  -34.7   0.98989    12.470
8111 ......................... 1       7.1947 /_  -34.2   0.99933    12.470
   -                           2       7.1901 /_ -154.8   0.99869    12.470
   -                           3       7.2512 /_   85.6    1.0072    12.470
836 .......................... 2       7.1295 /_ -155.0   0.99027    12.470
837 .......................... 2        7.128 /_ -155.0   0.99006    12.470
1023346 ...................... 1        7.313 /_  -33.4    1.0158    12.470
   -                           2       7.3021 /_ -153.7    1.0142    12.470
   -                           3       7.3157 /_   86.6    1.0161    12.470
MDV201_796USD_INT ............ 1       7.3125 /_  -33.4    1.0157    12.470
   -                           2       7.3016 /_ -153.7    1.0142    12.470
   -                           3       7.3152 /_   86.6    1.0161    12.470
28262 ........................ 3       7.1911 /_   85.4   0.99882    12.470
28263 ........................ 3        7.191 /_   85.4   0.99881    12.470
52519 ........................ 2       7.0546 /_ -155.3   0.97987    12.470
52521 ........................ 2       7.0542 /_ -155.3   0.97981    12.470
28199 ........................ 1       7.1894 /_  -34.2   0.99859    12.470
   -                           2       7.1915 /_ -154.8   0.99888    12.470
   -                           3       7.2494 /_   85.6    1.0069    12.470
28196 ........................ 1       7.1893 /_  -34.2   0.99858    12.470
   -                           2       7.1914 /_ -154.8   0.99887    12.470
   -                           3       7.2494 /_   85.6    1.0069    12.470
28264 ........................ 3       7.1911 /_   85.4   0.99883    12.470
28229 ........................ 3       7.2533 /_   85.7    1.0075    12.470
52531 ........................ 3       7.2531 /_   85.7    1.0074    12.470
14870 ........................ 1       7.2087 /_  -34.2    1.0013    12.470
46398 ........................ 3       7.1327 /_   85.1   0.99071    12.470
46399 ........................ 3        7.131 /_   85.1   0.99047    12.470
62264 ........................ 1       7.1811 /_  -34.4   0.99743    12.470
   -                           2       7.1874 /_ -154.5   0.99832    12.470
   -                           3        7.169 /_   85.3   0.99575    12.470
106895 ....................... 2       7.1874 /_ -154.5   0.99832    12.470
1163442 ...................... 3       7.1663 /_   85.3   0.99538    12.470
MDV201_1163443ELB_INT ........ 3       7.1663 /_   85.3   0.99538    12.470
1163443 ...................... 3       7.1663 /_   85.3   0.99538    12.470
99420 ........................ 1       7.1554 /_  -34.6   0.99387    12.470
   -                           2       7.1865 /_ -154.6   0.99819    12.470
   -                           3       7.1586 /_   85.3   0.99431    12.470
14828 ........................ 1       7.1945 /_  -33.9    0.9993    12.470
   -                           2       7.1268 /_ -155.1   0.98989    12.470
   -                           3        7.274 /_   85.5    1.0103    12.470
1144249 ...................... 3        7.274 /_   85.5    1.0103    12.470
63726 ........................ 1       7.2075 /_  -34.2    1.0011    12.470
8134 ......................... 1       7.1786 /_  -34.2   0.99709    12.470
8131 ......................... 1       7.1782 /_  -34.2   0.99704    12.470
62232 ........................ 3       7.1684 /_   85.3   0.99567    12.470
62234 ........................ 3       7.1678 /_   85.3   0.99558    12.470
841 .......................... 1       7.1624 /_  -34.2   0.99483    12.470
   -                           2       7.1467 /_ -154.9   0.99266    12.470
   -                           3       7.2325 /_   85.6    1.0046    12.470
8083 ......................... 1       7.1588 /_  -34.2   0.99434    12.470
   -                           2       7.1426 /_ -154.9   0.99209    12.470
   -                           3       7.2327 /_   85.6    1.0046    12.470
39579 ........................ 2        7.073 /_ -155.2   0.98242    12.470
52518 ........................ 2       7.0704 /_ -155.2   0.98207    12.470
782 .......................... 1       7.2906 /_  -33.6    1.0126    12.470
   -                           2       7.2815 /_ -153.9    1.0114    12.470
   -                           3       7.3024 /_   86.4    1.0143    12.470
783 .......................... 1        7.284 /_  -33.6    1.0117    12.470
   -                           2       7.2753 /_ -154.0    1.0105    12.470
   -                           3        7.299 /_   86.4    1.0138    12.470
8132 ......................... 1       7.1772 /_  -34.2    0.9969    12.470
8133 ......................... 1       7.1772 /_  -34.2    0.9969    12.470
MDV201_C_1P032_1160490_INT ... 1       7.1394 /_  -34.2   0.99164    12.470
1160490 ...................... 1       7.1394 /_  -34.2   0.99164    12.470
100477 ....................... 3       7.2635 /_   85.5    1.0089    12.470
28274 ........................ 3       7.2633 /_   85.5    1.0089    12.470
63677 ........................ 1       7.2063 /_  -34.1    1.0009    12.470
63676 ........................ 1       7.2061 /_  -34.1    1.0009    12.470
102184 ....................... 3       7.1862 /_   85.4   0.99815    12.470
28266 ........................ 3       7.1862 /_   85.4   0.99814    12.470
39772 ........................ 3       7.1815 /_   85.4   0.99749    12.470
39773 ........................ 3       7.1814 /_   85.4   0.99748    12.470
28241 ........................ 1       7.2009 /_  -34.1    1.0002    12.470
28238 ........................ 1       7.2002 /_  -34.1    1.0001    12.470
848 .......................... 2       7.1355 /_ -155.0   0.99111    12.470
1144260 ...................... 2       7.1355 /_ -155.0   0.99111    12.470
8095 ......................... 3       7.2279 /_   85.6    1.0039    12.470
8098 ......................... 3       7.2277 /_   85.5    1.0039    12.470
849 .......................... 2       7.1321 /_ -155.0   0.99063    12.470
850 .......................... 2       7.1313 /_ -155.0   0.99053    12.470
63714 ........................ 1       7.2075 /_  -34.2    1.0011    12.470
   -                           2       7.2029 /_ -154.5    1.0005    12.470
   -                           3       7.2167 /_   85.6    1.0024    12.470
63711 ........................ 1       7.2049 /_  -34.2    1.0007    12.470
   -                           2          7.2 /_ -154.5    1.0001    12.470
   -                           3       7.2086 /_   85.5    1.0013    12.470
1160484 ...................... 2       6.9962 /_ -155.3   0.97175    12.470
1160485 ...................... 2       6.9959 /_ -155.3   0.97171    12.470
8127 ......................... 1       7.1779 /_  -34.2     0.997    12.470
8128 ......................... 1       7.1777 /_  -34.2   0.99696    12.470
8119 ......................... 1       7.1549 /_  -34.2   0.99379    12.470
8117 ......................... 1       7.1547 /_  -34.2   0.99377    12.470
63709 ........................ 1       7.2047 /_  -34.2    1.0007    12.470
63710 ........................ 1       7.2046 /_  -34.2    1.0007    12.470
21654 ........................ 1       7.1835 /_  -34.2   0.99777    12.470
21653 ........................ 1       7.1825 /_  -34.2   0.99763    12.470
63708 ........................ 3       7.2488 /_   85.6    1.0068    12.470
63703 ........................ 3       7.2481 /_   85.6    1.0067    12.470
58411 ........................ 1       7.1497 /_  -34.7   0.99307    12.470
   -                           2       7.1676 /_ -154.6   0.99556    12.470
   -                           3       7.1357 /_   85.1   0.99114    12.470
106254 ....................... 1       7.1497 /_  -34.7   0.99307    12.470
1012405 ...................... 3       7.2053 /_   85.4    1.0008    12.470
1012407 ...................... 3       7.2052 /_   85.4    1.0008    12.470
810 .......................... 1       7.1974 /_  -34.2   0.99969    12.470
   -                           2       7.1895 /_ -154.8    0.9986    12.470
   -                           3       7.2541 /_   85.6    1.0076    12.470
1010731 ...................... 1       7.1963 /_  -34.2   0.99955    12.470
   -                           2       7.1897 /_ -154.8   0.99863    12.470
   -                           3       7.2526 /_   85.6    1.0074    12.470
39745 ........................ 3       7.1035 /_   85.1   0.98666    12.470
74453 ........................ 3       7.1026 /_   85.1   0.98654    12.470
6580 ......................... 1       7.1569 /_  -34.6   0.99407    12.470
   -                           2       7.1866 /_ -154.6    0.9982    12.470
   -                           3       7.1592 /_   85.3    0.9944    12.470
6582 ......................... 1       7.1555 /_  -34.6   0.99388    12.470
   -                           2       7.1865 /_ -154.6   0.99819    12.470
   -                           3       7.1587 /_   85.3   0.99432    12.470
1012412 ...................... 3        7.205 /_   85.4    1.0008    12.470
69622 ........................ 2       7.0613 /_ -155.3    0.9808    12.470
69620 ........................ 2       7.0598 /_ -155.3   0.98059    12.470
63654 ........................ 1       7.2239 /_  -34.1    1.0034    12.470
   -                           2       7.2162 /_ -154.5    1.0023    12.470
   -                           3       7.2544 /_   85.8    1.0076    12.470
14891 ........................ 1       7.2201 /_  -34.1    1.0028    12.470
   -                           2       7.2135 /_ -154.5    1.0019    12.470
   -                           3       7.2463 /_   85.7    1.0065    12.470
56756 ........................ 2       7.0027 /_ -155.3   0.97266    12.470
1103250 ...................... 2       7.0027 /_ -155.3   0.97266    12.470
6581 ......................... 2       7.0032 /_ -155.3   0.97272    12.470
14876 ........................ 3       7.2489 /_   85.6    1.0069    12.470
14872 ........................ 3       7.2487 /_   85.6    1.0068    12.470
1144245 ...................... 2       7.0964 /_ -155.2   0.98567    12.470
62301 ........................ 2       7.0963 /_ -155.2   0.98566    12.470
806 .......................... 2       7.1942 /_ -154.6   0.99926    12.470
809 .......................... 2       7.1928 /_ -154.6   0.99906    12.470
28248 ........................ 1        7.201 /_  -34.1    1.0002    12.470
28242 ........................ 1       7.2008 /_  -34.1    1.0002    12.470
74420 ........................ 1        7.146 /_  -34.6   0.99256    12.470
   -                           2       7.1753 /_ -154.6   0.99664    12.470
   -                           3       7.1477 /_   85.2    0.9928    12.470
74428 ........................ 1       7.1462 /_  -34.6   0.99258    12.470
   -                           2       7.1743 /_ -154.6   0.99649    12.470
   -                           3       7.1469 /_   85.2   0.99269    12.470
14831 ........................ 3       7.2721 /_   85.5    1.0101    12.470
14833 ........................ 3       7.2691 /_   85.5    1.0097    12.470
28251 ........................ 1       7.2035 /_  -34.1    1.0005    12.470
   -                           3        7.256 /_   85.7    1.0078    12.470
14893 ........................ 1        7.202 /_  -34.1    1.0003    12.470
...